Generated by Multiwfn
 OpenBabel11202318493D

 64 66  0  0  0  0  0  0  0  0999 V2000
    0.8315   -0.6358   -2.7764 H   0  0  0  0  0  0  0  0  0  0  0  0
   -0.0563    0.9136   -2.7896 H   0  0  0  0  0  0  0  0  0  0  0  0
   -0.9400   -0.6392   -2.7447 H   0  0  0  0  0  0  0  0  0  0  0  0
   -0.0480   -0.1089   -2.3884 C   0  0  0  0  0  0  0  0  0  0  0  0
   -0.0185   -0.1237   -0.9284 N   0  0  0  0  0  0  0  0  0  0  0  0
    1.3920   -0.2323    0.0463 P   0  0  0  0  0  0  0  0  0  0  0  0
   -1.3890    0.1464    0.0729 P   0  0  0  0  0  0  0  0  0  0  0  0
    2.3199   -1.6502   -0.5988 C   0  0  0  0  0  0  0  0  0  0  0  0
    3.1886   -1.5497   -1.6953 C   0  0  0  0  0  0  0  0  0  0  0  0
    2.0883   -2.9061   -0.0195 C   0  0  0  0  0  0  0  0  0  0  0  0
    3.8081   -2.6880   -2.2016 C   0  0  0  0  0  0  0  0  0  0  0  0
    2.7079   -4.0417   -0.5298 C   0  0  0  0  0  0  0  0  0  0  0  0
    3.5681   -3.9318   -1.6208 C   0  0  0  0  0  0  0  0  0  0  0  0
    4.4805   -2.6035   -3.0528 H   0  0  0  0  0  0  0  0  0  0  0  0
    2.5275   -5.0120   -0.0718 H   0  0  0  0  0  0  0  0  0  0  0  0
    4.0573   -4.8191   -2.0172 H   0  0  0  0  0  0  0  0  0  0  0  0
    2.3900    1.2342   -0.3402 C   0  0  0  0  0  0  0  0  0  0  0  0
    3.7675    1.2556   -0.0793 C   0  0  0  0  0  0  0  0  0  0  0  0
    1.7494    2.4148   -0.7415 C   0  0  0  0  0  0  0  0  0  0  0  0
    4.4910    2.4341   -0.2357 C   0  0  0  0  0  0  0  0  0  0  0  0
    2.4784    3.5898   -0.8981 C   0  0  0  0  0  0  0  0  0  0  0  0
    3.8487    3.6010   -0.6454 C   0  0  0  0  0  0  0  0  0  0  0  0
    5.5611    2.4399   -0.0389 H   0  0  0  0  0  0  0  0  0  0  0  0
    1.9744    4.4982   -1.2220 H   0  0  0  0  0  0  0  0  0  0  0  0
    4.4171    4.5204   -0.7680 H   0  0  0  0  0  0  0  0  0  0  0  0
   -2.5239   -1.2097   -0.3392 C   0  0  0  0  0  0  0  0  0  0  0  0
   -3.9055   -1.0765   -0.1443 C   0  0  0  0  0  0  0  0  0  0  0  0
   -1.9996   -2.4537   -0.7190 C   0  0  0  0  0  0  0  0  0  0  0  0
   -4.7475   -2.1670   -0.3404 C   0  0  0  0  0  0  0  0  0  0  0  0
   -2.8475   -3.5390   -0.9182 C   0  0  0  0  0  0  0  0  0  0  0  0
   -4.2207   -3.3973   -0.7283 C   0  0  0  0  0  0  0  0  0  0  0  0
   -5.8196   -2.0532   -0.1943 H   0  0  0  0  0  0  0  0  0  0  0  0
   -2.4345   -4.4972   -1.2271 H   0  0  0  0  0  0  0  0  0  0  0  0
   -4.8819   -4.2471   -0.8837 H   0  0  0  0  0  0  0  0  0  0  0  0
   -2.1918    1.6527   -0.5449 C   0  0  0  0  0  0  0  0  0  0  0  0
   -1.9583    2.8585    0.1313 C   0  0  0  0  0  0  0  0  0  0  0  0
   -2.9649    1.6617   -1.7152 C   0  0  0  0  0  0  0  0  0  0  0  0
   -2.4829    4.0522   -0.3541 C   0  0  0  0  0  0  0  0  0  0  0  0
   -3.4870    2.8568   -2.1982 C   0  0  0  0  0  0  0  0  0  0  0  0
   -3.2465    4.0505   -1.5193 C   0  0  0  0  0  0  0  0  0  0  0  0
   -2.3029    4.9826    0.1805 H   0  0  0  0  0  0  0  0  0  0  0  0
   -4.0852    2.8570   -3.1070 H   0  0  0  0  0  0  0  0  0  0  0  0
   -3.6601    4.9827   -1.8983 H   0  0  0  0  0  0  0  0  0  0  0  0
    4.2779    0.3449    0.2361 H   0  0  0  0  0  0  0  0  0  0  0  0
    1.4201   -2.9880    0.8403 H   0  0  0  0  0  0  0  0  0  0  0  0
   -4.3251   -0.1138    0.1489 H   0  0  0  0  0  0  0  0  0  0  0  0
   -1.3628    2.8557    1.0464 H   0  0  0  0  0  0  0  0  0  0  0  0
   -3.1652    0.7287   -2.2426 H   0  0  0  0  0  0  0  0  0  0  0  0
   -0.9238   -2.5626   -0.8707 H   0  0  0  0  0  0  0  0  0  0  0  0
    3.3850   -0.5769   -2.1463 H   0  0  0  0  0  0  0  0  0  0  0  0
    0.6749    2.4106   -0.9338 H   0  0  0  0  0  0  0  0  0  0  0  0
    1.0255    2.5736    2.2930 H   0  0  0  0  0  0  0  0  0  0  0  0
   -0.2188    2.3063    3.6442 H   0  0  0  0  0  0  0  0  0  0  0  0
    2.4408    0.7475    3.2247 H   0  0  0  0  0  0  0  0  0  0  0  0
    1.2117    0.4768    4.5836 H   0  0  0  0  0  0  0  0  0  0  0  0
    0.6835    1.9684    3.1336 C   0  0  0  0  0  3  0  0  0  0  0  0
    1.4550    0.9623    3.6382 C   0  0  0  0  0  0  0  0  0  0  0  0
    0.0210   -0.0680    2.1242 Cr  0  0  0  0  0  0  0  0  0  0  0  0
   -0.6133   -2.1266    3.0985 C   0  0  0  0  0  3  0  0  0  0  0  0
   -1.3706   -1.1346    3.6507 C   0  0  0  0  0  0  0  0  0  0  0  0
   -0.9796   -2.7101    2.2530 H   0  0  0  0  0  0  0  0  0  0  0  0
    0.3030   -2.4778    3.5738 H   0  0  0  0  0  0  0  0  0  0  0  0
   -1.1007   -0.6742    4.6013 H   0  0  0  0  0  0  0  0  0  0  0  0
   -2.3676   -0.9098    3.2705 H   0  0  0  0  0  0  0  0  0  0  0  0
  1  4  1  0  0  0  0
  2  4  1  0  0  0  0
  3  4  1  0  0  0  0
  4  5  1  0  0  0  0
  5  6  1  0  0  0  0
  5  7  1  0  0  0  0
  8 10  1  0  0  0  0
  8  6  1  0  0  0  0
  9  8  2  0  0  0  0
 10 45  1  0  0  0  0
 11  9  1  0  0  0  0
 11 13  2  0  0  0  0
 12 15  1  0  0  0  0
 12 10  2  0  0  0  0
 13 12  1  0  0  0  0
 14 11  1  0  0  0  0
 16 13  1  0  0  0  0
 17 18  1  0  0  0  0
 17  6  1  0  0  0  0
 18 44  1  0  0  0  0
 19 17  2  0  0  0  0
 20 18  2  0  0  0  0
 20 23  1  0  0  0  0
 21 19  1  0  0  0  0
 21 22  2  0  0  0  0
 22 20  1  0  0  0  0
 24 21  1  0  0  0  0
 25 22  1  0  0  0  0
 26 27  1  0  0  0  0
 26  7  1  0  0  0  0
 27 46  1  0  0  0  0
 28 26  2  0  0  0  0
 29 32  1  0  0  0  0
 29 27  2  0  0  0  0
 30 31  2  0  0  0  0
 30 28  1  0  0  0  0
 31 29  1  0  0  0  0
 33 30  1  0  0  0  0
 34 31  1  0  0  0  0
 35  7  1  0  0  0  0
 35 36  1  0  0  0  0
 36 47  1  0  0  0  0
 37 35  2  0  0  0  0
 38 36  2  0  0  0  0
 38 41  1  0  0  0  0
 39 37  1  0  0  0  0
 39 40  2  0  0  0  0
 40 38  1  0  0  0  0
 42 39  1  0  0  0  0
 43 40  1  0  0  0  0
 48 37  1  0  0  0  0
 49 28  1  0  0  0  0
 50  9  1  0  0  0  0
 51 19  1  0  0  0  0
 52 56  1  0  0  0  0
 54 57  1  0  0  0  0
 56 57  1  0  0  0  0
 56 53  1  0  0  0  0
 57 55  1  0  0  0  0
 58 57  1  0  0  0  0
 58 60  1  0  0  0  0
 59 62  1  0  0  0  0
 59 60  1  0  0  0  0
 60 63  1  0  0  0  0
 61 59  1  0  0  0  0
 64 60  1  0  0  0  0
M  END
